[General]
network = src.dtnsim										
outputscalarmanager-class = omnetpp::envir::SqliteOutputScalarManager
outputvectormanager-class = omnetpp::envir::SqliteOutputVectorManager
repeat = 1
allow-object-stealing-on-deletion = true

# Simulation end time
sim-time-limit = 80s

# Nodes quantity (identifiers (EiDs) matches their index, EiD=0 is ignored)			
dtnsim.nodesNumber = 21
dtnsim.node[*].controllerId = 21
dtnsim.node[1..21].icon = "satellite"

	
# Nodes's failure rates
# dtnsim.node[*].fault.enable = false
# dtnsim.node[*].fault.faultSeed = ${repetition}*10
# dtnsim.node[*].fault.meanTTF = 20s
# dtnsim.node[*].fault.meanTTR = 5s

# Net Layer (available routing: direct, cgrModel350, cgrModelRev17, cgrModel350_Hops, cgrModel350_2Copies)
dtnsim.node[1..20].dtn.routing = "cgrModelRev17"
dtnsim.node[21].dtn.routing = "direct"

dtnsim.node[*].dtn.sdrSize = 1000000 #capacity in bytes
dtnsim.node[*].dtn.sdrInitOccup = 500000
dtnsim.node[*].dtn.sdrInitOffset = intuniform(-100000, 100000)
dtnsim.central.contactsFile = "contactPlan/dtnsim_demo.txt"
dtnsim.node[*].dtn.routingType = "routeListType:allPaths-firstEnding,volumeAware:allContacts,extensionBlock:off,contactPlan:global,SDN:on" #
dtnsim.node[*].dtn.printRoutingDebug = true

# App Layer (comma separeted strings for different traffic generators)			
dtnsim.node[1].app.enable=true
dtnsim.node[1].app.bundlesNumber="1,1,1,1,1,1,1,1,1,1,1,1,1,1,1,1,1,1,1,1,1,1,1,1,1,1,1,1,1,1,1,1,1,1,1,1,1,1,1,1"
dtnsim.node[1].app.start="1,2,3,4,5,6,7,8,9,10,11,12,13,14,15,16,17,18,19,20,21,22,23,24,25,26,27,28,29,30,31,32,33,34,35,36,37,38,39,40"
dtnsim.node[1].app.destinationEid="20,2,3,4,5,6,7,8,9,10,11,12,13,14,15,16,17,18,19,20,2,3,4,5,6,7,8,9,10,11,12,13,14,15,16,17,18,19,20,2"
dtnsim.node[1].app.size="1000,1000,1000,1000,1000,1000,1000,1000,1000,1000,1000,1000,1000,1000,1000,1000,1000,1000,1000,1000,1000,1000,1000,1000,1000,1000,1000,1000,1000,1000,1000,1000,1000,1000,1000,1000,1000,1000,1000,1000"


dtnsim.node[21].app.control=true
dtnsim.node[21].app.enable=true
dtnsim.node[21].app.bundlesNumber="1,1,1,1,1,1,1,1,1,1,1,1,1,1,1,1,1,1,1,1,1,1,1,1,1,1,1,1,1,1,1,1,1,1,1,1,1,1,1,1"
dtnsim.node[21].app.start="0,1,2,3,4,5,6,7,8,9,10,11,12,13,14,15,16,17,18,19,20,21,22,23,24,25,26,27,28,29,30,31,32,33,34,35,36,37,38,39"	
dtnsim.node[21].app.destinationEid="1,1,1,1,1,1,1,1,1,1,1,1,1,1,1,1,1,1,1,1,1,1,1,1,1,1,1,1,1,1,1,1,1,1,1,1,1,1,1,1"
dtnsim.node[21].app.size="1,1,1,1,1,1,1,1,1,1,1,1,1,1,1,1,1,1,1,1,1,1,1,1,1,1,1,1,1,1,1,1,1,1,1,1,1,1,1,1"
dtnsim.node[21].app.targetEid="20,2,3,4,5,6,7,8,9,10,11,12,13,14,15,16,17,18,19,20,2,3,4,5,6,7,8,9,10,11,12,13,14,15,16,17,18,19,20,2"
dtnsim.node[21].app.bundlesNumberControl="1,1,1,1,1,1,1,1,1,1,1,1,1,1,1,1,1,1,1,1,1,1,1,1,1,1,1,1,1,1,1,1,1,1,1,1,1,1,1,1"
dtnsim.node[21].app.sizeControl="1000,1000,1000,1000,1000,1000,1000,1000,1000,1000,1000,1000,1000,1000,1000,1000,1000,1000,1000,1000,1000,1000,1000,1000,1000,1000,1000,1000,1000,1000,1000,1000,1000,1000,1000,1000,1000,1000,1000,1000"
dtnsim.node[21].app.controlStart="1,2,3,4,5,6,7,8,9,10,11,12,13,14,15,16,17,18,19,20,21,22,23,24,25,26,27,28,29,30,31,32,33,34,35,36,37,38,39,40"

